Version 4
SHEET 1 1628 724
WIRE 960 -64 848 -64
WIRE 1200 -64 1040 -64
WIRE -224 -32 -336 -32
WIRE -176 -32 -224 -32
WIRE -80 -32 -96 -32
WIRE -48 -32 -80 -32
WIRE 64 -32 32 -32
WIRE 112 -32 64 -32
WIRE 208 -32 192 -32
WIRE 256 -32 208 -32
WIRE 368 -32 256 -32
WIRE 576 -32 448 -32
WIRE 1040 32 992 32
WIRE 1088 32 1040 32
WIRE 416 64 400 64
WIRE 432 64 416 64
WIRE -224 80 -224 48
WIRE -80 96 -80 48
WIRE -80 112 -80 96
WIRE 64 128 64 48
WIRE 208 128 208 48
WIRE 64 144 64 128
WIRE 400 160 400 64
WIRE 208 176 208 128
WIRE 256 176 256 -32
WIRE 368 176 256 176
WIRE 992 176 992 32
WIRE -224 192 -224 80
WIRE 576 192 576 -32
WIRE 576 192 432 192
WIRE 672 192 576 192
WIRE 848 192 848 -64
WIRE 848 192 752 192
WIRE 960 192 848 192
WIRE 368 208 304 208
WIRE 1200 208 1200 -64
WIRE 1200 208 1024 208
WIRE 1248 208 1200 208
WIRE -336 224 -416 224
WIRE -256 224 -336 224
WIRE -80 224 -80 192
WIRE 960 224 848 224
WIRE 64 256 64 224
WIRE 1200 256 1200 208
WIRE 304 272 304 208
WIRE 208 288 208 256
WIRE 400 304 400 224
WIRE 432 304 400 304
WIRE 848 304 848 224
WIRE -416 336 -416 224
WIRE 1200 384 1200 336
WIRE 992 400 992 240
WIRE 1040 400 992 400
WIRE 1088 400 1040 400
WIRE -416 448 -416 416
WIRE -416 448 -528 448
WIRE -528 480 -528 448
WIRE -416 496 -416 448
WIRE -416 656 -416 576
WIRE -336 656 -416 656
WIRE -256 656 -336 656
FLAG 1248 208 VOUT
IOPIN 1248 208 Out
FLAG -528 480 0
FLAG -336 224 +VCC
FLAG 1040 32 +VCC
FLAG -336 656 -VEE
FLAG 1040 400 -VEE
FLAG 1200 384 0
FLAG 848 304 0
FLAG 416 64 +VCC
FLAG 432 304 -VEE
FLAG 576 192 VO1
FLAG 304 272 0
FLAG -336 48 0
FLAG -224 192 0
FLAG -80 224 0
FLAG 64 256 0
FLAG 208 288 0
FLAG -224 80 V1
FLAG -80 96 V2
FLAG 64 128 V3
FLAG 208 128 V4
SYMBOL Opamps\\opamp2 992 144 R0
SYMATTR InstName U2
SYMATTR Value UA741
SYMBOL res 1184 240 R0
SYMATTR InstName RL
SYMATTR Value 5K
SYMBOL Misc\\battery -416 320 R0
SYMATTR InstName VCC
SYMATTR Value 15V
SYMBOL Misc\\battery -416 480 R0
SYMATTR InstName VEE
SYMATTR Value 15V
SYMBOL res 768 176 R90
WINDOW 0 0 56 VBottom 2
WINDOW 3 32 56 VTop 2
SYMATTR InstName R1
SYMATTR Value 1K
SYMBOL res 1056 -80 R90
WINDOW 0 0 56 VBottom 2
WINDOW 3 32 56 VTop 2
SYMATTR InstName R2
SYMATTR Value 1K
SYMBOL Opamps\\opamp2 400 128 R0
SYMATTR InstName U1
SYMATTR Value UA741
SYMBOL res 464 -48 R90
WINDOW 0 0 56 VBottom 2
WINDOW 3 32 56 VTop 2
SYMATTR InstName RF
SYMATTR Value 5.33K
SYMBOL res 192 -48 R0
SYMATTR InstName R3
SYMATTR Value 2K
SYMBOL res 48 -48 R0
SYMATTR InstName R4
SYMATTR Value 2K
SYMBOL res -96 -48 R0
SYMATTR InstName R5
SYMATTR Value 2K
SYMBOL res -352 -48 R0
SYMATTR InstName R7
SYMATTR Value 2K
SYMBOL res -80 -48 R90
WINDOW 0 0 56 VBottom 2
WINDOW 3 32 56 VTop 2
SYMATTR InstName R9
SYMATTR Value 1K
SYMBOL res 48 -48 R90
WINDOW 0 0 56 VBottom 2
WINDOW 3 32 56 VTop 2
SYMATTR InstName R10
SYMATTR Value 1K
SYMBOL res 208 -48 R90
WINDOW 0 0 56 VBottom 2
WINDOW 3 32 56 VTop 2
SYMATTR InstName R11
SYMATTR Value 1K
SYMBOL res -240 -48 R0
SYMATTR InstName R6
SYMATTR Value 2K
SYMBOL voltage -80 96 R0
WINDOW 123 0 0 Left 2
WINDOW 39 0 0 Left 2
SYMATTR InstName V2
SYMATTR Value PULSE(0 1.2 125us 1ns 1ns 125us 250us)
SYMBOL voltage 64 128 R0
WINDOW 123 0 0 Left 2
WINDOW 39 0 0 Left 2
SYMATTR InstName V3
SYMATTR Value PULSE(0 1.2 250us 1ns 1ns 250us 500us)
SYMBOL voltage 208 160 R0
WINDOW 123 0 0 Left 2
WINDOW 39 0 0 Left 2
SYMATTR InstName V4
SYMATTR Value PULSE(0 1.2 500us 1ns 1ns 500us 1000us)
TEXT 1384 -96 Left 2 !.lib UA741.sub
TEXT 1384 -56 Left 2 !.tran 0 5ms 0 0.5us
