Version 4
SHEET 1 2472 772
WIRE -128 64 -224 64
WIRE 208 64 -128 64
WIRE 560 64 208 64
WIRE 880 64 560 64
WIRE 1216 64 880 64
WIRE 1520 64 1216 64
WIRE 1872 64 1520 64
WIRE -224 144 -224 64
WIRE 208 144 208 64
WIRE 560 144 560 64
WIRE 880 144 880 64
WIRE 1216 144 1216 64
WIRE 1520 144 1520 64
WIRE 1872 176 1872 64
WIRE 16 208 -48 208
WIRE 96 208 16 208
WIRE 112 208 96 208
WIRE 384 208 336 208
WIRE 464 208 384 208
WIRE 720 208 688 208
WIRE 784 208 720 208
WIRE 1056 208 1008 208
WIRE 1120 208 1056 208
WIRE 1392 208 1344 208
WIRE 1440 208 1392 208
WIRE 1776 240 1664 240
WIRE 2112 240 2000 240
WIRE 2272 240 2112 240
WIRE -224 272 -224 224
WIRE -48 288 -48 208
WIRE 2112 288 2112 240
WIRE 208 352 208 272
WIRE 560 352 560 272
WIRE 560 352 208 352
WIRE 880 352 880 272
WIRE 880 352 560 352
WIRE 1216 352 1216 272
WIRE 1216 352 880 352
WIRE 560 384 560 352
WIRE 2112 400 2112 352
WIRE 1520 416 1520 336
WIRE 1872 416 1872 304
WIRE 1872 416 1520 416
WIRE -48 432 -48 368
WIRE 96 448 96 208
WIRE 1440 448 1440 272
WIRE 1440 448 96 448
WIRE 1520 448 1520 416
FLAG 2112 400 0
FLAG 2272 240 Vout
IOPIN 2272 240 Out
FLAG -48 432 0
FLAG -224 272 0
FLAG 1520 448 0
FLAG 560 384 0
FLAG 384 208 VN1
FLAG 720 208 VN2
FLAG 1056 208 VN3
FLAG -128 64 VDD
FLAG 16 208 VIN
FLAG 1392 208 VN4
SYMBOL Misc\\battery -224 128 R0
WINDOW 123 0 0 Left 2
WINDOW 39 0 0 Left 2
SYMATTR InstName VDD
SYMATTR Value 1.8V
SYMBOL cap 2096 288 R0
SYMATTR InstName CL
SYMATTR Value 200f
SYMBOL voltage -48 272 R0
WINDOW 123 0 0 Left 2
WINDOW 39 0 0 Left 2
SYMATTR InstName VIN
SYMATTR Value PULSE(0 1.8V 9.5ns 0.5ns 0.5ns 9.5ns 20ns)
SYMBOL inv 208 208 R0
WINDOW 39 0 28 Center 2
SYMATTR SpiceLine wp=20u lp=0.87u wn=50u ln=0.87u
SYMATTR InstName X1
SYMBOL inv 560 208 R0
WINDOW 39 0 28 Center 2
SYMATTR SpiceLine wp=20u lp=0.87u wn=50u ln=0.87u
SYMATTR InstName X2
SYMBOL inv 880 208 R0
WINDOW 39 0 28 Center 2
SYMATTR SpiceLine wp=20u lp=0.87u wn=50u ln=0.87u
SYMATTR InstName X3
SYMBOL inv 1216 208 R0
WINDOW 39 0 28 Center 2
SYMATTR SpiceLine wp=20u lp=0.87u wn=50u ln=0.87u
SYMATTR InstName X4
SYMBOL nor2 1536 240 R0
WINDOW 39 9 28 Center 2
SYMATTR SpiceLine wp=5u lp=0.18u wn=1u ln=0.18u
SYMATTR InstName X5
SYMBOL inv 1872 240 R0
WINDOW 39 0 28 Center 2
SYMATTR SpiceLine wp=5u lp=0.18u wn=2u ln=0.18u
SYMATTR InstName X6
TEXT 448 -72 Left 2 !.inc C:\\Program Files (x86)\\LTC\\LTspiceIV\\CMOS_model\\cmos180_level49
TEXT 472 -32 Left 2 !.tran 0 45ns 00 0.45ps
