Version 4
SHEET 1 1240 680
WIRE 224 64 192 64
WIRE 496 64 464 64
WIRE 752 64 720 64
WIRE 1008 64 976 64
WIRE 16 128 -176 128
WIRE 288 128 208 128
WIRE 544 128 480 128
WIRE 800 128 736 128
WIRE 192 144 192 64
WIRE 192 144 176 144
WIRE 464 144 464 64
WIRE 464 144 448 144
WIRE 720 144 720 64
WIRE 720 144 704 144
WIRE 976 144 976 64
WIRE 976 144 960 144
WIRE 16 160 -16 160
WIRE 288 160 256 160
WIRE 544 160 512 160
WIRE 800 160 768 160
WIRE 192 176 176 176
WIRE 208 176 208 128
WIRE 208 176 192 176
WIRE 464 176 448 176
WIRE 480 176 480 128
WIRE 480 176 464 176
WIRE 720 176 704 176
WIRE 736 176 736 128
WIRE 736 176 720 176
WIRE 976 176 960 176
WIRE 16 192 0 192
WIRE 288 192 272 192
WIRE 544 192 528 192
WIRE 800 192 784 192
WIRE -16 240 -16 160
WIRE 192 240 192 176
WIRE 192 240 -16 240
WIRE 256 240 256 160
WIRE 464 240 464 176
WIRE 464 240 256 240
WIRE 512 240 512 160
WIRE 720 240 720 176
WIRE 720 240 512 240
WIRE 768 240 768 160
WIRE 976 240 976 176
WIRE 976 240 768 240
WIRE 0 288 0 192
WIRE 0 288 -176 288
WIRE 272 288 272 192
WIRE 272 288 0 288
WIRE 528 288 528 192
WIRE 528 288 272 288
WIRE 784 288 784 192
WIRE 784 288 528 288
WIRE 32 416 0 416
WIRE 48 416 32 416
WIRE 640 416 608 416
WIRE 656 416 640 416
WIRE 0 464 0 416
WIRE 608 464 608 416
WIRE 0 560 0 544
WIRE 608 560 608 544
FLAG -176 128 CLK
IOPIN -176 128 In
FLAG -176 288 RESET
IOPIN -176 288 In
FLAG 224 64 DQ0
IOPIN 224 64 Out
FLAG 496 64 DQ1
IOPIN 496 64 Out
FLAG 752 64 DQ2
IOPIN 752 64 Out
FLAG 1008 64 DQ3
IOPIN 1008 64 Out
FLAG 0 560 0
FLAG 608 560 0
FLAG 32 416 CLK
FLAG 640 416 RESET
SYMBOL DFF 96 160 R0
SYMATTR InstName X1
SYMBOL DFF 368 160 R0
SYMATTR InstName X2
SYMBOL DFF 624 160 R0
SYMATTR InstName X3
SYMBOL DFF 880 160 R0
SYMATTR InstName X4
SYMBOL voltage 0 448 R0
WINDOW 123 0 0 Left 2
WINDOW 39 0 0 Left 2
SYMATTR InstName VCLK
SYMATTR Value PULSE(0 1.2V 6ns 0.05ns 0.05ns 0.95ns 2ns)
SYMBOL voltage 608 448 R0
WINDOW 123 0 0 Left 2
WINDOW 39 0 0 Left 2
SYMATTR InstName VRESET
SYMATTR Value PULSE(1.2V 0 4.5ns 0.5ns 0.5ns 654.5ns 795ns)
TEXT 32 -104 Left 2 !.inc C:\\Program Files (x86)\\LTC\\LTspiceIV\\CMOS_model\\cmos180_level49
TEXT 40 -56 Left 2 !.tran 0 700ns 0 70ps
