Version 4
SHEET 1 1240 772
WIRE 16 128 -16 128
WIRE 336 128 304 128
WIRE 624 128 592 128
WIRE 912 128 880 128
WIRE 224 144 224 48
WIRE 224 144 176 144
WIRE 544 144 544 48
WIRE 544 144 496 144
WIRE 832 144 832 48
WIRE 832 144 784 144
WIRE 1104 144 1104 48
WIRE 1104 144 1072 144
WIRE 16 160 -144 160
WIRE 224 160 224 144
WIRE 336 160 224 160
WIRE 544 160 544 144
WIRE 624 160 544 160
WIRE 832 160 832 144
WIRE 912 160 832 160
WIRE 16 192 0 192
WIRE 336 192 320 192
WIRE 624 192 608 192
WIRE 912 192 896 192
WIRE -16 272 -16 128
WIRE -16 272 -144 272
WIRE 304 272 304 128
WIRE 304 272 -16 272
WIRE 592 272 592 128
WIRE 592 272 304 272
WIRE 880 272 880 128
WIRE 880 272 592 272
WIRE 0 368 0 192
WIRE 0 368 -144 368
WIRE 320 368 320 192
WIRE 320 368 0 368
WIRE 608 368 608 192
WIRE 608 368 320 368
WIRE 896 368 896 192
WIRE 896 368 608 368
WIRE 32 416 0 416
WIRE 48 416 32 416
WIRE 640 416 608 416
WIRE 656 416 640 416
WIRE 0 464 0 416
WIRE 608 464 608 416
WIRE 0 560 0 544
WIRE 608 560 608 544
WIRE 320 608 288 608
WIRE 336 608 320 608
WIRE 288 656 288 608
WIRE 288 752 288 736
FLAG 0 560 0
FLAG 608 560 0
FLAG 32 416 CLK
FLAG 640 416 RESET
FLAG -144 160 DIN
IOPIN -144 160 In
FLAG -144 272 CLK
IOPIN -144 272 In
FLAG -144 368 RESET
IOPIN -144 368 In
FLAG 224 48 DQ0
IOPIN 224 48 Out
FLAG 544 48 DQ1
IOPIN 544 48 Out
FLAG 832 48 DQ2
IOPIN 832 48 Out
FLAG 1104 48 DQ3
IOPIN 1104 48 Out
FLAG 288 752 0
FLAG 320 608 DIN
SYMBOL DFF 96 160 R0
SYMATTR InstName X1
SYMBOL voltage 0 448 R0
WINDOW 123 0 0 Left 2
WINDOW 39 0 0 Left 2
SYMATTR InstName VCLK
SYMATTR Value PULSE(0 1.2V 24.5ns 0.5ns 0.5ns 9.5ns 20ns)
SYMBOL voltage 608 448 R0
WINDOW 123 0 0 Left 2
WINDOW 39 0 0 Left 2
SYMATTR InstName VRESET
SYMATTR Value PULSE(1.2V 0 4.5ns 0.5ns 0.5ns 374.5ns 482ns)
SYMBOL DFF 416 160 R0
SYMATTR InstName X2
SYMBOL DFF 704 160 R0
SYMATTR InstName X3
SYMBOL DFF 992 160 R0
SYMATTR InstName X4
SYMBOL voltage 288 640 R0
WINDOW 123 0 0 Left 2
WINDOW 39 0 0 Left 2
SYMATTR InstName VDIN
SYMATTR Value PULSE(0 1.2V 19.5ns 0.5ns 0.5ns 29.5ns 120ns)
TEXT 32 -104 Left 2 !.inc C:\\Program Files (x86)\\LTC\\LTspiceIV\\CMOS_model\\cmos180_level49
TEXT 40 -56 Left 2 !.tran 0 450ns 0 45ps
