Version 4
SHEET 1 880 680
WIRE 272 -96 272 -144
WIRE 288 -96 272 -96
WIRE -80 -80 -128 -80
WIRE 224 -80 -80 -80
WIRE 288 -48 288 -96
WIRE 288 -48 272 -48
WIRE 64 16 -128 16
WIRE 224 16 64 16
WIRE 288 48 288 -48
WIRE 288 48 272 48
WIRE 208 112 -128 112
WIRE 224 112 208 112
WIRE 288 144 288 48
WIRE 288 144 272 144
WIRE 128 192 -16 192
WIRE 272 192 128 192
WIRE 320 192 272 192
WIRE 0 240 -16 240
WIRE 144 240 128 240
WIRE 288 240 272 240
WIRE -80 272 -80 -80
WIRE -64 272 -80 272
WIRE 64 272 64 16
WIRE 80 272 64 272
WIRE 208 272 208 112
WIRE 224 272 208 272
WIRE 0 288 0 240
WIRE 0 288 -16 288
WIRE 128 288 0 288
WIRE 144 288 144 240
WIRE 144 288 128 288
WIRE 272 288 144 288
WIRE 288 288 288 240
WIRE 288 288 272 288
WIRE 272 336 272 288
FLAG -128 16 B
IOPIN -128 16 In
FLAG -128 112 C
IOPIN -128 112 In
FLAG 320 192 Y
IOPIN 320 192 Out
FLAG -128 -80 A
IOPIN -128 -80 In
FLAG 272 336 VSS
IOPIN 272 336 BiDir
FLAG 272 -144 VDD
IOPIN 272 -144 BiDir
SYMBOL nmos4 80 192 R0
SYMATTR InstName M1
SYMATTR Value nch
SYMATTR Value2 l=ln w=wn
SYMBOL nmos4 224 192 R0
SYMATTR InstName M2
SYMATTR Value nch
SYMATTR Value2 l=ln w=wn
SYMBOL pmos4 224 192 M180
SYMATTR InstName M3
SYMATTR Value pch
SYMATTR Value2 l=lp w=wp
SYMBOL pmos4 224 96 M180
SYMATTR InstName M4
SYMATTR Value pch
SYMATTR Value2 l=lp w=wp
SYMBOL nmos4 -64 192 R0
SYMATTR InstName M5
SYMATTR Value nch
SYMATTR Value2 l=ln w=wn
SYMBOL pmos4 224 0 M180
SYMATTR InstName M6
SYMATTR Value pch
SYMATTR Value2 l=lp w=wp
