Version 4
SHEET 1 880 680
WIRE 48 32 -48 32
WIRE -48 80 -48 32
WIRE 272 80 112 80
WIRE 176 112 176 48
WIRE 112 128 112 80
WIRE 144 128 112 128
WIRE 272 144 272 80
WIRE 272 144 208 144
WIRE 336 144 272 144
WIRE 432 144 336 144
WIRE 560 144 432 144
WIRE 144 160 112 160
WIRE -48 176 -48 160
WIRE -48 176 -96 176
WIRE -96 192 -96 176
WIRE 112 192 112 160
WIRE -48 208 -48 176
WIRE 176 240 176 176
WIRE -48 320 -48 288
WIRE 48 320 -48 320
FLAG -96 192 0
FLAG 336 224 0
FLAG 48 32 +VCC
FLAG 176 48 +VCC
FLAG 48 320 -VEE
FLAG 176 240 -VEE
FLAG 112 272 0
FLAG 560 144 VOUT
IOPIN 560 144 Out
FLAG 432 208 0
SYMBOL Opamps\\opamp2 176 80 R0
SYMATTR InstName U1
SYMATTR Value UA741
SYMBOL res 320 128 R0
SYMATTR InstName R1
SYMATTR Value 2K
SYMBOL Misc\\battery -48 64 R0
WINDOW 123 0 0 Left 2
WINDOW 39 0 0 Left 2
SYMATTR InstName V1
SYMATTR Value 15
SYMBOL Misc\\battery -48 192 R0
WINDOW 123 0 0 Left 2
WINDOW 39 0 0 Left 2
SYMATTR InstName V2
SYMATTR Value 15
SYMBOL voltage 112 176 R0
WINDOW 3 24 152 Left 2
WINDOW 123 24 124 Left 2
WINDOW 39 0 0 Left 2
SYMATTR InstName VIN
SYMATTR Value PULSE(0 20m 30u 0.1n 0.1n 30u 60u)
SYMBOL cap 416 144 R0
SYMATTR InstName C1
SYMATTR Value 100p
TEXT 352 -24 Left 2 !.lib UA741.sub
TEXT 352 0 Left 2 !;dc VIN -1V 1V 1uV
TEXT 352 24 Left 2 !;ac dec 100 0.01 1G
TEXT 352 48 Left 2 !.tran 0 150u 0 1n
